130

C          8.57564       14.89969        0.15597
C          9.79173       15.58909        0.30263
C         11.03038       14.92783        0.33934
C         12.27157       15.61606        0.53226
C         13.50788       14.91836        0.36953
C         14.74165       15.58361        0.28511
C         15.95873       14.90046        0.11788
C         17.18039       15.59012        0.02890
C         18.40679       14.91004       -0.07853
C         19.63383       15.59610       -0.13116
C         20.86217       14.91288       -0.17449
C         22.09159       15.59789       -0.17409
C         23.31987       14.91336       -0.15726
C         24.54837       15.59672       -0.09178
C         25.77453       14.91058       -0.03108
C         27.00037       15.58986        0.08759
C         25.77360       13.46586       -0.07304
C         23.31853       13.46716       -0.17422
C         20.86184       13.46672       -0.18645
C         18.40680       13.46499       -0.10496
C         15.95543       13.46132        0.05312
C         14.72191       12.76200        0.09051
C         13.49735       13.47755        0.20812
C         12.26675       12.76745        0.16981
C         11.03872       13.48298        0.19857
C          9.81183       12.76580        0.09727
C          8.57793       13.46276        0.07573
C          7.35133       12.75605       -0.02599
C         24.54560       12.75754       -0.14458
C         22.08981       12.75710       -0.19533
C         19.63340       12.75631       -0.16570
C         17.17938       12.75428       -0.05377
C         24.54268       11.32441       -0.16125
C         23.31421       10.61213       -0.19008
C         22.08690       11.32320       -0.19928
C         20.85776       10.61042       -0.19627
C         19.63079       11.32211       -0.17623
C         18.40210       10.60965       -0.14803
C         17.17543       11.32221       -0.09159
C         15.94512       10.61423       -0.06048
C         14.71837       11.32949        0.01161
C         13.48986       10.61881        0.01593
C         12.26450       11.33470        0.06893
C         11.03597       10.62050        0.01870
C          9.81021       11.33274        0.02086
C          8.58103       10.61804       -0.04542
C          7.35034       11.32517       -0.07120
C          6.12286       10.61346       -0.12983
C          6.12184        9.18442       -0.14142
C          7.34954        8.47542       -0.11389
C          8.57882        9.18965       -0.07906
C          9.80603        8.47734       -0.06943
C         11.03371        9.19064       -0.03594
C         12.26060        8.47531       -0.05042
C         13.48894        9.18806       -0.03859
C         14.71486        8.47235       -0.07446
C         15.94411        9.18367       -0.08946
C         17.17044        8.46904       -0.12453
C         18.39993        9.17977       -0.15431
C         19.62743        8.46683       -0.17575
C         20.85568        9.17990       -0.19266
C         22.08422        8.46773       -0.19202
C         23.31258        9.18161       -0.18869
C         22.08313        7.03719       -0.17720
C         20.85318        6.32304       -0.16282
C         19.62600        7.03575       -0.16194
C         18.39603        6.32289       -0.13523
C         17.16804        7.03774       -0.12173
C         15.93918        6.32574       -0.10335
C         14.71150        7.04137       -0.09050
C         13.48341        6.33023       -0.08786
C         12.25711        7.04503       -0.07873
C         11.02809        6.33398       -0.08723
C          9.80304        7.04718       -0.08793
C          8.57408        6.33360       -0.10017
C          7.34668        7.04569       -0.11541
C          6.11899        6.33190       -0.13079
C          4.89102        7.04100       -0.15807
C          4.89267        8.47048       -0.16872
C          3.66200        6.32671       -0.16171
C          3.66154        4.89253       -0.13523
C          4.89240        4.18569       -0.11582
C          6.11985        4.89726       -0.11579
C          7.34626        4.18951       -0.10119
C          8.57117        4.90244       -0.09901
C          9.79482        4.18985       -0.09514
C         11.02182        4.89904       -0.09311
C         12.24778        4.18747       -0.09327
C         13.47910        4.89543       -0.09296
C         14.70393        4.18256       -0.09432
C         15.93614        4.89128       -0.09959
C         17.16275        4.18008       -0.10193
C         18.39355        4.88899       -0.11737
C         19.62295        4.17887       -0.11615
C         20.85143        4.88914       -0.13542
C         19.62216        2.73185       -0.09568
C         18.39195        2.04803       -0.08655
C         17.16297        2.73321       -0.09182
C         15.93136        2.04920       -0.08818
C         14.70464        2.73577       -0.09163
C         13.46993        2.05241       -0.09169
C         12.24769        2.74245       -0.09330
C         11.00759        2.06053       -0.09318
C          9.77976        2.73917       -0.09380
C          8.56934        1.99500       -0.08961
C          6.13117        2.06018       -0.08673
C          7.35985        2.73912       -0.09154
C          4.89096        2.74111       -0.09588
C          3.66809        2.05075       -0.08832
C          2.43298        2.73311       -0.09869
C          2.43486        4.18006       -0.12418
C          1.20525        2.04744       -0.08751
H         27.00509       16.67772        0.13524
H         24.54915       16.68541       -0.06772
H         22.09137       16.68676       -0.16005
H         17.17862       16.67828        0.06676
H         14.77353       16.66600        0.34678
H         13.03376       18.31700        2.06071
H          9.77190       16.67181        0.36294
H          1.20598        0.95884       -0.07052
H          3.67344        0.96191       -0.07229
H          6.15748        0.97081       -0.07581
H         19.63307       16.68488       -0.11504
H         10.98161        0.97118       -0.09160
H         13.46481        0.96346       -0.09052
H         15.92947        0.96047       -0.08259
H         18.39097        0.95934       -0.07485
Cx         12.24408       17.04644        0.91730
O         13.17991       17.36574        1.88511
O         11.46812       17.90633        0.50838
