45

C     -1.3505329153    0.1168561201    0.3591029678
C     10.0453983763   -2.3497383087    0.1840166985
C      3.6358609169   -3.5859334533    0.1776528987
H      9.8681965954    2.2202809342   -0.4235436260
C      3.6344965513    1.3190896049    0.4915912428
Cx     4.9958975083    1.3352931356    0.4478181272
C      5.7735846948    0.1481794769    0.2515873607
C      5.0555700673   -3.5799827948    0.1780642006
C      7.1990698772    0.1384912710    0.0960124409
C      7.9574770656    1.3236676917   -0.1906162366
O      5.6560337473    2.5603231304    0.7223093471
C      1.5005316221   -2.3509605018    0.2385021099
C     -0.6452622604   -1.1153218609    0.3019017823
C      0.7845156289   -3.5897721728    0.1748691605
C      9.3272977905   -3.5872322044    0.1762854297
C     -0.6356936276   -3.5901697498    0.1729150355
H     -1.1325842745    2.2859090493    0.3744391688
C     10.0523947178    0.1153625701    0.0971173346
C      2.9179239642   -2.3501082785    0.2314400375
C      9.3345603032   -1.1110964197    0.1479856659
C      5.0581848600   -1.0954595805    0.2491859580
C      3.6284100444   -1.1118844848    0.2813814258
C      2.9107527116    0.1097798732    0.3553097678
C      1.4858464956    0.1154780669    0.3434790128
C      0.7507775795    1.3320624830    0.3625677516
C     -0.6138123621    1.3329770048    0.3736123398
C      9.3297989035    1.3118348964   -0.1644010673
C     -1.3540476276   -2.3529792723    0.2427736990
C      0.7837720638   -1.1165606197    0.2956557839
C      7.9073972818   -3.5834031392    0.1837198823
C      7.1906516007   -2.3415094416    0.1935246969
C      5.7721061077   -2.3360939017    0.1998941664
H      1.2657702983    2.2874250303    0.3461875003
H      7.4411420160    2.2257062248   -0.5015173273
H      7.3710679559   -4.5092800291    0.1820019627
C      7.9034921983   -1.1039815454    0.1548620444
H     -2.4199898542    0.1294337578    0.3907853164
H     11.1148940407   -2.3520248342    0.2167872337
H      3.1038638427   -4.5134249243    0.1371708472
H     -2.4240129320   -2.3564793517    0.2506546240
H      1.3197201190   -4.5151549349    0.1287930310
H      9.8599984557   -4.5151334050    0.1649067036
H      5.5929969355   -4.5050862287    0.1620607574
H     -1.1697075688   -4.5158278155    0.1191901041
H     11.1109087829    0.1374001280    0.2519153716
