89

C         -0.05078        0.00585       -0.00246
C          4.21618       -7.44202        0.00167
C          7.06938       -7.44744        0.00237
C         -0.06605       -9.89923        0.00384
C          4.94927        1.20298       -0.02561
Cx         6.38184        1.27627        0.01290
C          7.03165       -0.06039       -0.00445
C          2.79143       -4.96851        0.00032
C          1.98699      -11.03617        0.00328
C          6.26177      -11.04736        0.00010
C          2.79694       -7.43586        0.00155
C          6.35555       -8.68226        0.00170
C          4.21834       -4.97465        0.00013
C          2.08208       -3.72497        0.00121
C          6.35497       -6.20984        0.00172
C          0.65553       -3.71867        0.00072
C          5.02320      -11.04409        0.00038
C          2.08379       -6.19409        0.00158
C          4.92921       -6.20667        0.00103
C          4.93097       -8.67982        0.00136
C          6.34609       -1.28875       -0.00206
C          4.93503       -1.28825        0.00521
C          4.27485       -0.00155       -0.00187
C          2.84973       -0.02313       -0.00309
C          2.02810        1.10046       -0.00918
C          0.77761        1.13177        0.00003
C          0.74874      -11.03026        0.00335
C         -0.05429       -4.95365        0.00156
C          7.08293       -9.92051        0.00144
C          0.65606       -6.18936        0.00182
C         -0.05443       -7.42465        0.00301
C          7.06053       -2.51850       -0.00105
C          0.65973       -8.66407        0.00322
C          2.08327       -8.66941        0.00275
C          2.80809       -9.91034        0.00213
C          4.20369       -9.91539        0.00111
C         -0.05230       -2.47517       -0.00035
C          7.06391       -4.98265        0.00136
C          6.35015       -3.75035        0.00081
C          4.93064       -3.74564        0.00095
C          4.22204       -2.50124        0.00436
C          2.79420       -2.49845        0.00424
C          2.09905       -1.25142        0.00360
C          0.66947       -1.24261       -0.00032
C          8.42325       -0.05599       -0.00420
C         12.76067       -7.42774        0.00195
C         15.61064       -7.42368        0.00278
C          8.47892       -9.91831        0.00226
C         13.55071        1.11264       -0.00292
C         14.79268        1.12314       -0.00163
C         15.62792        0.00393       -0.00220
C         11.33509       -4.96306        0.00086
C         10.54097      -11.03885        0.00313
C         14.80938      -11.02693        0.00263
C         11.34068       -7.43399        0.00217
C         14.89846       -8.66013        0.00307
C         12.76170       -4.95556        0.00070
C         10.62179       -3.72911       -0.00041
C         14.89737       -6.18576        0.00202
C          9.20038       -3.74511       -0.00024
C         13.57086      -11.02916        0.00259
C         10.62739       -6.19739        0.00165
C         13.47214       -6.18837        0.00167
C         13.47547       -8.66299        0.00238
C         14.88944       -1.23511       -0.00166
C         13.45667       -1.23758       -0.00066
C         12.70580        0.00153       -0.00073
C         11.29736        0.01006       -0.00015
C         10.49365        1.17818        0.00330
C          9.24075        1.06024        0.00214
C          9.30242      -11.04317        0.00207
C          8.49069       -4.97857        0.00119
C         15.62476       -9.89831        0.00335
C          9.20209       -6.20634        0.00232
C          8.48907       -7.44459        0.00268
C         15.60569       -2.47298       -0.00075
C          9.20411       -8.67902        0.00303
C         10.62807       -8.67218        0.00270
C         11.35637       -9.90840        0.00281
C         12.75148       -9.90281        0.00242
C          8.48076       -2.51467       -0.00177
C         15.60437       -4.95183        0.00117
C         14.89398       -3.71275        0.00010
C         13.46853       -3.71606        0.00042
C         12.75057       -2.47746        0.00028
C         11.32547       -2.48312       -0.00065
C         10.60313       -1.25071       -0.00155
C          9.17928       -1.28276       -0.00326
O          7.12066        2.29346        0.04759
