10
acetone
C      1.3051000000   -0.6772000000   -0.0000000000
Cx      0.0000000000    0.0763000000   -0.0000000000
O     -0.0000000000    1.2839000000    0.0000000000
C     -1.3051000000   -0.6772000000    0.0000000000
H      1.6198000000   -0.8588000000    1.0277000000
H      1.1748000000   -1.6296000000   -0.5138000000
H      2.0647000000   -0.0881000000   -0.5138000000
H     -1.1059000000   -1.7488000000   -0.0000000000
H     -1.8767000000   -0.4138000000    0.8900000000
H     -1.8767000000   -0.4138000000   -0.8900000000
