116
XYZ file generated by Avogadro.
C      8.7304198245   14.5236806782    2.0100791800
C     10.0132356012   15.1490648306    2.0707599807
C     11.1324779863   14.4767560702    1.5842990136
C     12.2911797054   15.2320420956    1.7973928125
C     13.5676404222   14.6272772949    1.5626461170
C     14.7929520770   15.2702905855    1.7149240851
C     16.0271198725   14.5647159350    1.7443847358
C     17.1766093034   15.2090797787    2.2299287266
C     18.4198738854   14.5186225212    2.1875043686
C     19.6639711218   14.9834073697    2.5341447055
C     20.9359955386   14.4634625642    2.4021266673
C     22.1828696759   15.0287015353    2.6727405234
C     23.4129218891   14.4191014065    2.4143789947
C     24.6597069751   14.9945785282    2.5867874554
C     25.9197213281   14.5164410455    2.3036727317
C     27.1882820791   15.0961502823    2.4044540865
C     25.8879705038   13.1057071458    1.7903954460
C     23.4121033582   13.0437032227    1.9021312527
C     20.9403740373   13.0713177486    1.8719408890
C     18.4656492906   13.1172224362    1.6913137218
C     16.0279886701   13.1718630706    1.3917774653
C     14.8034586126   12.5113472875    1.1006804198
C     13.5740042862   13.2169954295    1.2072657325
C     12.3603604546   12.4990161601    0.9911046723
C     11.1170849000   13.1467262245    1.1801688702
C      9.8828444741   12.4659454744    1.1297011664
C      8.6964822465   13.1461667695    1.5005618118
C      7.4581967515   12.4561767563    1.4382962006
C     24.6517749638   12.4088806389    1.6370430289
C     22.1735997385   12.3907756659    1.6724965790
C     19.7067585016   12.4299780128    1.5688711308
C     17.2569833823   12.4618233068    1.3478821256
C     24.6424932342   11.0394087041    1.1947438471
C     23.4088942386   10.3491137507    1.0243679760
C     22.1747676861   11.0269685454    1.2278323052
C     20.9464762429   10.3554105133    0.9920426565
C     19.7166942564   11.0578027713    1.1334037143
C     18.4941709212   10.3844079838    0.8486163995
C     17.2653739844   11.0881386291    0.9461104186
C     16.0400788418   10.4191356008    0.6581609830
C     14.8076359397   11.1232324697    0.7509985292
C     13.5875592868   10.4306677211    0.5271234143
C     12.3567463116   11.1204184722    0.6681930776
C     11.1189016686   10.4235938537    0.5375350137
C      9.8858461989   11.0915467667    0.7786475259
C      8.6566062800   10.3915032240    0.7179901410
C      7.4435158085   11.0758418808    1.0197575852
C      6.2156482968   10.3665242560    0.9228484355
C      6.2134332775    8.9844164750    0.5505001446
C      7.4349863391    8.2994532031    0.2983077784
C      8.6605065633    9.0077568729    0.3740257095
C      9.8893535540    8.3319516055    0.1265669113
C     11.1204675328    9.0385773937    0.2201069549
C     12.3532360418    8.3529542763    0.0307168233
C     13.5861036329    9.0463458871    0.1985910305
C     14.8164096506    8.3531696369    0.0661895645
C     16.0423367729    9.0388189809    0.3003610583
C     17.2721880129    8.3340422820    0.1952398122
C     18.4950000983    9.0066833313    0.4639095722
C     19.7222855177    8.2996066888    0.3530875973
C     20.9469276057    8.9786010364    0.6011379800
C     22.1757449408    8.2807215342    0.4514668601
C     23.4065397602    8.9713381571    0.6391996226
C     22.1762000475    6.8941663252    0.1032610189
C     20.9507383678    6.2122073519   -0.1220328955
C     19.7240380513    6.9201182120   -0.0197591004
C     18.4995990035    6.2517386658   -0.2987225469
C     17.2729890954    6.9568707103   -0.1855524339
C     16.0467992532    6.2841789358   -0.4518822546
C     14.8153930013    6.9738930806   -0.2958066896
C     13.5866250263    6.2876261755   -0.4950579026
C     12.3534739932    6.9677383934   -0.2975260199
C     11.1235248439    6.2626764602   -0.4118741509
C      9.8935760154    6.9393036628   -0.1814745571
C      8.6658345543    6.2233171670   -0.2385051161
C      7.4387092964    6.9051329641   -0.0102328679
C      6.2113826120    6.1938754312   -0.0779684831
C      4.9848776037    6.8890262826    0.1084438234
C      4.9847101766    8.2816596781    0.4328194856
C      3.7566086171    6.1912429668   -0.0277002964
C      3.7574807234    4.7794479786   -0.2741026362
C      4.9858902628    4.0739804387   -0.3170068379
C      6.2168408434    4.7768044830   -0.2901354798
C      7.4506436134    4.0910817540   -0.4419425977
C      8.6721886022    4.8109556875   -0.4844379483
C      9.9021538220    4.1484333995   -0.7418337792
C     11.1258641611    4.8681337216   -0.7398136957
C     12.3549387285    4.2222784034   -1.0435437327
C     13.5877862598    4.9180341853   -0.9133312734
C     14.8207072441    4.2793685498   -1.1993753586
C     16.0503343563    4.9296334100   -0.9135770986
C     17.2856629579    4.2614945759   -1.1035312564
C     18.5029649231    4.8833389802   -0.7290062416
C     19.7308222412    4.1736031022   -0.7932438022
C     20.9513749752    4.8175126452   -0.4602382698
C     19.7398599176    2.7595700004   -1.2239107685
C     18.5418288978    2.2918644549   -1.7568468508
C     17.3048761675    2.9220240150   -1.7229592957
C     16.0746263413    2.4152628042   -2.1454582916
C     14.8223550407    2.9394462723   -1.8187570100
C     13.5781968500    2.3362052989   -1.9503921997
C     12.3530950225    2.8161400114   -1.4956720626
C     11.1311523425    2.1613009110   -1.3978371043
C      9.9144464362    2.6936882390   -0.9904613328
C      8.7044301636    2.0366874405   -0.7790855812
C      6.2328194863    1.9867813347   -0.3697333203
C      7.4669827055    2.6151189564   -0.5253151933
C      4.9827705360    2.5982595767   -0.3677716453
C      3.7336782123    1.9908661050   -0.4639289189
C      2.5145604873    2.6364337372   -0.6547490610
C      2.5258063307    4.0995134531   -0.4612635137
C      1.2952042387    2.0951471092   -1.0377153627
C     11.8837639116   16.3853072050    2.5266705239
O     12.5052740467   17.2800163910    3.1152715156
O     10.4087754257   16.3326421613    2.6304989152
Na    14.6848715059   16.8099588375    3.9351456117
