117

  C         8.6847411776       14.5139446881        2.2375108325
  C         9.9579687337       15.1428717603        2.3206627295
  C        11.1303946260       14.4508562143        1.9729798142
  C        12.2760682817       15.2309031396        2.1437616347
  C        13.5628151690       14.6320325747        1.9005103600
  C        14.7794515401       15.2939584785        2.0471854904
  C        16.0064755100       14.6120349893        1.8538387860
  C        17.2189523948       15.2547053663        2.0296549514
  C        18.4808314732       14.6803523437        1.9437000264
  C        19.7374851683       15.2078479256        2.1522872450
  C        20.9700717566       14.5855488445        2.1044237551
  C        22.2057045325       15.1489930600        2.3937802966
  C        23.4483453105       14.5628848701        2.3279838103
  C        24.7216565594       15.0833042732        2.6209718018
  C        25.9358219358       14.4619863494        2.4019118672
  C        27.1525041172       15.1870930674        2.6411582184
  C        25.8984794338       13.1033002037        1.8827592060
  C        23.4355252165       13.1463605247        1.8636734487
  C        20.9660516044       13.1639768196        1.7214520520
  C        18.4933719598       13.2273865311        1.5778060185
  C        16.0252223545       13.2167077891        1.4856919645
  C        14.8015281812       12.5363173872        1.2940965455
  C        13.5717680710       13.2289811735        1.4995165242
  C        12.3662289034       12.4897101249        1.3284578385
  C        11.1245426071       13.1203463591        1.5708062424
  C         9.8897249041       12.4449758011        1.4602486939
  C         8.6905624854       13.1361388088        1.7607018519
  C         7.4672241945       12.4361880950        1.6093823766
  C        24.6603867825       12.4496419370        1.6647784494
  C        22.1984985551       12.4810417608        1.6022715525
  C        19.7252623840       12.5216716393        1.4676866036
  C        17.2695833098       12.5440107046        1.3435192989
  C        24.6471218867       11.0775985610        1.2361302871
  C        23.4171858658       10.4000431738        1.0285319925
  C        22.1919427557       11.1002662981        1.1974279114
  C        20.9618613466       10.4319868542        0.9550478603
  C        19.7277553845       11.1346880414        1.0898903712
  C        18.5039098295       10.4554341816        0.8407656444
  C        17.2753903325       11.1566146905        0.9769872568
  C        16.0459002576       10.4687486021        0.7554733974
  C        14.8111865622       11.1513044148        0.9236351128
  C        13.5935140113       10.4446913691        0.7456376465
  C        12.3654661688       11.1196277547        0.9564480005
  C        11.1330731268       10.4178380849        0.8232324358
  C         9.8981499189       11.0813816955        1.0692367137
  C         8.6731446316       10.3832784663        0.9389180129
  C         7.4567434495       11.0699574308        1.1887243741
  C         6.2210471586       10.3864086234        1.0246260820
  C         6.2207468735        9.0087174086        0.6477939547
  C         7.4472433529        8.3151853652        0.4390289643
  C         8.6759616659        9.0095536081        0.5686431298
  C         9.9044601240        8.3357915588        0.3377541913
  C        11.1342250181        9.0430143178        0.4608395181
  C        12.3635177264        8.3678879212        0.2320595937
  C        13.5933421078        9.0686356872        0.3818979644
  C        14.8249223634        8.3921621620        0.1849278911
  C        16.0488108705        9.0885023788        0.3826954486
  C        17.2803490316        8.3951529729        0.2229924453
  C        18.5049285297        9.0742397385        0.4620316447
  C        19.7325287044        8.3714570775        0.3307586552
  C        20.9600668955        9.0500919619        0.5749097345
  C        22.1841379376        8.3415353564        0.4398685094
  C        23.4145814941        9.0217434611        0.6509013584
  C        22.1840303029        6.9529710372        0.0937757599
  C        20.9591344527        6.2784087629       -0.1457447992
  C        19.7326817934        6.9917445983       -0.0444986835
  C        18.5069266422        6.3232668398       -0.3135732535
  C        17.2797020094        7.0217343519       -0.1722647460
  C        16.0514528200        6.3424530306       -0.4139816337
  C        14.8227199654        7.0193134862       -0.2077417053
  C        13.5940417129        6.3262929120       -0.3892881094
  C        12.3629779027        6.9920748829       -0.1421303447
  C        11.1362248331        6.2854047189       -0.2648771302
  C         9.9061990059        6.9547665098       -0.0114154811
  C         8.6779459928        6.2460419449       -0.1065957207
  C         7.4492605642        6.9286874553        0.1076884667
  C         6.2183714188        6.2278008776       -0.0052708665
  C         4.9927843644        6.9283008826        0.1542394975
  C         4.9926692720        8.3201610235        0.4808444055
  C         3.7628835635        6.2405804620       -0.0156508680
  C         3.7608666587        4.8293638383       -0.2669623292
  C         4.9886431697        4.1178235538       -0.2977154612
  C         6.2205925253        4.8148220120       -0.2420334123
  C         7.4551574317        4.1271745605       -0.3952747791
  C         8.6804527219        4.8426737177       -0.4005525439
  C         9.9079203013        4.1889017660       -0.6864646326
  C        11.1348399159        4.9062339021       -0.6520076621
  C        12.3584853290        4.2805551318       -1.0053186911
  C        13.5916428011        4.9715058812       -0.8532777139
  C        14.8219996565        4.3454301234       -1.1784169389
  C        16.0519727544        4.9928415411       -0.8950714493
  C        17.2876964242        4.3254908643       -1.0978253264
  C        18.5085623589        4.9523753559       -0.7402818937
  C        19.7329224515        4.2385727877       -0.7998514705
  C        20.9567799198        4.8813529167       -0.4748325174
  C        19.7336563645        2.8157401534       -1.1980353271
  C        18.5308511667        2.3344593264       -1.7015691802
  C        17.2992155787        2.9751934242       -1.6934956813
  C        16.0687387385        2.4869206915       -2.1338706873
  C        14.8176036766        3.0237841516       -1.8378089174
  C        13.5680656090        2.4393814710       -2.0312413426
  C        12.3456225745        2.9077166499       -1.5499311739
  C        11.1217840119        2.2510982801       -1.4926516079
  C         9.9115130549        2.7516052275       -1.0229634213
  C         8.7008754095        2.0917697224       -0.8324520690
  C         6.2320814446        2.0244461943       -0.3853702849
  C         7.4669641520        2.6573746511       -0.5353012626
  C         4.9843230957        2.6422750349       -0.3650233998
  C         3.7312167474        2.0411831912       -0.4584599433
  C         2.5121889160        2.6901680981       -0.6456363449
  C         2.5269416009        4.1567586913       -0.4640427807
  C         1.2885118789        2.1462619533       -1.0095242088
  C        11.8763670749       16.5207374335        2.6141147941
  O        12.3563240287       17.5747079493        2.9259649058
  O        10.2610174742       16.3918084108        2.7267459096
  H        14.8051405874       16.3430070263        2.3346908291
 Na         8.1360775148       17.2890022633        3.6571119947
