     225

  C         8.6206587557       14.9243982344        3.5833596737
  C         8.6271784737       14.9379851445        0.0554075732
  C         9.8498602379       15.6432692423        3.6003920452
  C         9.8559462617       15.6576029370        0.0560766867
  C        11.0757939747       14.9240122492        3.6982935243
  C        11.0830256577       14.9386377885        0.0527550269
  C        12.3045298715       15.6446782464        3.6916403515
  C        12.3119652287       15.6579670127        0.0530585687
  C        13.5303644107       14.9257886550        3.7740797511
  C        13.5389116743       14.9386855164        0.0407888614
  C        14.7595246970       15.6444062367        3.7006747293
  C        14.7682463307       15.6575970805        0.0551019858
  C        15.9851586303       14.9231528591        3.7095975219
  C        15.9950093619       14.9381901615        0.0546260583
  C        17.2141974851       15.6424578318        3.6269288893
  C        17.2244238374       15.6568720155        0.0630610946
  C        18.4401187847       14.9221813186        3.6019291800
  C        18.4511418624       14.9374522760        0.0602134180
  C        19.6714179814       15.6409010210        3.5631509139
  C        19.6803738946       15.6559944213        0.0578366760
  C        20.8976325966       14.9240627431        3.5331910873
  C        20.9072226074       14.9367739048        0.0501804357
  C        22.1268844739       15.6461470089        3.5394205214
  C        22.1364818735       15.6555806727        0.0494293863
  C        23.3540644205       14.9266209057        3.5164377026
  C        23.3634666912       14.9365802301        0.0438034482
  C        24.5831731806       15.6469435892        3.5279332348
  C        24.5924813500       15.6558399198        0.0471429136
  C        25.8113300316       14.9262645265        3.5192591652
  C        25.8194740721       14.9370700068        0.0463486479
  C        27.0407899072       15.6449995575        3.5318717361
  C        27.0481781850       15.6567937906        0.0502234940
  C        25.8036622006       13.4997143515        3.5229858506
  C        25.8095087078       13.5117363786        0.0466618024
  C        23.3449440327       13.4999778071        3.5014653214
  C        23.3538390605       13.5113696261        0.0398881346
  C        20.8864546935       13.4976395469        3.5306773942
  C        20.8980521233       13.5114411287        0.0483118186
  C        18.4287170244       13.4960203653        3.6449210898
  C        18.4421008693       13.5120419737        0.0559740093
  C        15.9757160520       13.4989825623        3.8254556181
  C        15.9858051633       13.5126561860        0.0241721545
  C        14.7491873631       12.7850677326        3.9886304366
  C        14.7569377386       12.7949768470       -0.0437441026
  C        13.5204536703       13.5044020561        3.9301558316
  C        13.5292416116       13.5136868679       -0.0174466118
  C        12.2896201339       12.7857998294        3.9859035604
  C        12.2999019508       12.7950751955       -0.0418626142
  C        11.0655820717       13.5002430634        3.8190839413
  C        11.0730814292       13.5130641019        0.0265261481
  C         9.8368919398       12.7801213735        3.7770707315
  C         9.8444797804       12.7934832734        0.0354579741
  C         8.6127289491       13.4982390031        3.6353854026
  C         8.6171552218       13.5124583685        0.0562449296
  C         7.3837583383       12.7799154220        3.5837725489
  C         7.3885107388       12.7926619181        0.0539047192
  C        24.5735739358       12.7805834756        3.5059755787
  C        24.5807926118       12.7922082935        0.0417041485
  C        22.1148189046       12.7797078833        3.5106328916
  C        22.1249749114       12.7921420196        0.0425996328
  C        19.6562837033       12.7780999314        3.5925883436
  C        19.6690254784       12.7924503972        0.0540461574
  C        17.2021833045       12.7784993698        3.7833743081
  C        17.2128695667       12.7932641765        0.0320000278
  C        24.5649996788       11.3547313334        3.5083665894
  C        24.5717452836       11.3670008853        0.0435696677
  C        23.3342539966       10.6354467993        3.5040539111
  C        23.3429954446       10.6476173153        0.0418997140
  C        22.1056448051       11.3540135363        3.5168834724
  C        22.1162197976       11.3669282385        0.0443190432
  C        20.8755946919       10.6350417095        3.5616014909
  C        20.8874579941       10.6475987570        0.0518653337
  C        19.6467631331       11.3525521944        3.6210906388
  C        19.6606826417       11.3670160771        0.0540882487
  C        18.4197164402       10.6349016760        3.7508442651
  C        18.4317955008       10.6477419484        0.0343443974
  C        17.1954245048       11.3538532711        3.8776216533
  C        17.2058404220       11.3681112498       -0.0054535494
  C        15.9748879469       10.6395505496        4.0985661248
  C        15.9791040401       10.6497619530       -0.1100105632
  C        14.7455183605       11.3654034679        4.1783847414
  C        14.7514773625       11.3717311689       -0.1462559303
  C        13.5095286763       10.6499042860        4.3376269816
  C        13.5192919632       10.6542968482       -0.2380925521
  C        12.2755007331       11.3664236803        4.1768231478
  C        12.2889572594       11.3719247432       -0.1452497852
  C        11.0432431516       10.6416602864        4.0977210570
  C        11.0597374622       10.6496659457       -0.1089998818
  C         9.8248100629       11.3556611179        3.8747653936
  C         9.8351357284       11.3683491454       -0.0010051513
  C         8.5978980257       10.6358188902        3.7500698547
  C         8.6066175270       10.6479997864        0.0362439437
  C         7.3751381571       11.3543235961        3.6115035486
  C         7.3794067417       11.3672540311        0.0547852467
  C         6.1458391290       10.6360940302        3.5436864846
  C         6.1505792851       10.6477170824        0.0510251028
  C         6.1369386393        9.2107906464        3.5466818718
  C         6.1405864385        9.2224115378        0.0516536973
  C         7.3650817328        8.4929591931        3.6315544086
  C         7.3673694677        8.5029974856        0.0517688923
  C         8.5903734979        9.2107628761        3.7725304173
  C         8.5963370510        9.2224488145        0.0290602941
  C         9.8112577319        8.4921846707        3.9471263002
  C         9.8218997373        8.5021831389       -0.0351929604
  C        11.0302030841        9.2109790387        4.1608152374
  C        11.0475622610        9.2219822028       -0.1409232699
  C        12.2566199053        8.4847854208        4.3301732468
  C        12.2742261825        8.4981992529       -0.2343327322
  C        13.4993862440        9.2095944660        4.4494667621
  C        13.5094835711        9.2212332732       -0.3112758201
  C        14.7386811477        8.4821176957        4.3237311028
  C        14.7422728829        8.4983171706       -0.2303028211
  C        15.9673868234        9.2081841899        4.1563994034
  C        15.9707507235        9.2221173855       -0.1379639844
  C        17.1843034660        8.4893284957        3.9397306539
  C        17.1940164123        8.5020361455       -0.0313731052
  C        18.4076849229        9.2088702736        3.7715554230
  C        18.4218547590        9.2222329864        0.0298359010
  C        19.6321995223        8.4911258053        3.6339121909
  C        19.6486825490        8.5027445251        0.0527478600
  C        20.8627113619        9.2093889134        3.5594142876
  C        20.8775898805        9.2222631697        0.0523603582
  C        22.0922313371        8.4911293974        3.5145256093
  C        22.1043005537        8.5029660250        0.0453095486
  C        23.3239642189        9.2099742224        3.5028956910
  C        23.3330839515        9.2223640576        0.0424877989
  C        22.0840074841        7.0657233891        3.5084680897
  C        22.0949723904        7.0777098998        0.0434437623
  C        20.8527016342        6.3472399136        3.5300575259
  C        20.8662732383        6.3581484958        0.0482061875
  C        19.6240768426        7.0659453585        3.6099414985
  C        19.6393231257        7.0773477616        0.0523473405
  C        18.3952961413        6.3474682271        3.6922736483
  C        18.4105435283        6.3575464947        0.0459458265
  C        17.1735422993        7.0634283364        3.8751670732
  C        17.1837397634        7.0764992281       -0.0024920660
  C        15.9453300817        6.3420814212        3.9626642037
  C        15.9554095444        6.3556808106       -0.0305532184
  C        14.7218787630        7.0528620773        4.1736994051
  C        14.7292493647        7.0710268547       -0.1370217712
  C        13.4832607832        6.3342927968        4.1244110339
  C        13.4980956309        6.3514582072       -0.1063126166
  C        12.2523764673        7.0550909742        4.1797335576
  C        12.2688353818        7.0707396197       -0.1414039494
  C        11.0292177430        6.3435317893        3.9724515847
  C        11.0402729958        6.3556473926       -0.0367294757
  C         9.8049746214        7.0662727697        3.8850486060
  C         9.8139472387        7.0765504724       -0.0086559441
  C         8.5824299499        6.3503763998        3.7090662439
  C         8.5851266686        6.3577787130        0.0439936307
  C         7.3563714360        7.0684079842        3.6207549849
  C         7.3583165455        7.0775473055        0.0521604464
  C         6.1269265155        6.3498376547        3.5496394455
  C         6.1293361861        6.3583664758        0.0504245664
  C         4.8970923693        7.0666314836        3.5134553344
  C         4.9025479196        7.0777742417        0.0443612753
  C         4.9058437673        8.4918475363        3.5100745917
  C         4.9117588673        8.5030547869        0.0450900721
  C         3.6659442141        6.3471646593        3.5032054843
  C         3.6737836037        6.3584201031        0.0408729072
  C         3.6570939726        4.9211245655        3.5135542060
  C         3.6640848534        4.9330889053        0.0423480172
  C         4.8860516817        4.2030385897        3.5410843773
  C         4.8908210406        4.2138261791        0.0476634774
  C         6.1176370192        4.9251550927        3.5615231335
  C         6.1199554467        4.9328538650        0.0512598935
  C         7.3437211329        4.2046790815        3.5964680044
  C         7.3465621101        4.2133063876        0.0583400671
  C         8.5738081929        4.9253833413        3.6570349793
  C         8.5758460182        4.9320883367        0.0559455268
  C         9.7982542721        4.2036578000        3.6924310183
  C         9.8023183501        4.2123565752        0.0569973553
  C        11.0242563264        4.9213755187        3.8193937673
  C        11.0316250557        4.9306991151        0.0288504825
  C        12.2500195334        4.2002277284        3.8010692413
  C        12.2579389452        4.2105948444        0.0365143991
  C        13.4773422267        4.9177197633        3.9098896437
  C        13.4872617816        4.9273594995       -0.0002491899
  C        14.7041779217        4.2013105891        3.7957285226
  C        14.7152145316        4.2107035495        0.0373252637
  C        15.9333453908        4.9207605513        3.8080769701
  C        15.9442421064        4.9306711905        0.0311446677
  C        17.1577327393        4.2035052384        3.6661524088
  C        17.1715748728        4.2121811248        0.0543665535
  C        18.3866643041        4.9224553005        3.6233887082
  C        18.4004663869        4.9319345526        0.0531822103
  C        19.6145291103        4.2028880030        3.5381593582
  C        19.6275239804        4.2131138215        0.0504333593
  C        20.8449183322        4.9212914390        3.5171039308
  C        20.8563211907        4.9327628225        0.0458640987
  C        19.6086411439        2.7762644837        3.5262287524
  C        19.6177496281        2.7876762501        0.0497279508
  C        18.3793912578        2.0577860978        3.5353311997
  C        18.3891530571        2.0679023789        0.0513720087
  C        17.1511536753        2.7784565940        3.5876764687
  C        17.1619870479        2.7866091298        0.0559320260
  C        15.9226662211        2.0590429812        3.5866617181
  C        15.9333362021        2.0667890750        0.0548985010
  C        14.6957820904        2.7788230218        3.6577985742
  C        14.7060887980        2.7854377031        0.0567569381
  C        13.4676483003        2.0579306121        3.6154435094
  C        13.4768426541        2.0664489103        0.0562914049
  C        12.2413222674        2.7772266413        3.6650380433
  C        12.2494921502        2.7853266661        0.0588789300
  C        11.0131403987        2.0554855695        3.6084482323
  C        11.0203392998        2.0669715741        0.0622940926
  C         9.7875444569        2.7766652842        3.6244808228
  C         9.7935439352        2.7867138630        0.0649904909
  C         8.5573884256        2.0560114589        3.6063568267
  C         8.5644279182        2.0681047790        0.0653387631
  C         6.1018319173        2.0560821494        3.6199346403
  C         6.1084752830        2.0688951636        0.0598252877
  C         7.3317008382        2.7769668819        3.6021545829
  C         7.3376059861        2.7877165987        0.0619624916
  C         4.8755532395        2.7764322572        3.5855532473
  C         4.8815888874        2.7883736202        0.0535547382
  C         3.6459889697        2.0555299581        3.5990769237
  C         3.6525472489        2.0691960883        0.0540823050
  C         2.4187163883        2.7751171788        3.5426524299
  C         2.4255364655        2.7883739288        0.0489420034
  C         2.4264401041        4.2015544149        3.5125863953
  C         2.4351697719        4.2137502747        0.0436119999
  C         1.1896075159        2.0553357502        3.5424836838
  C         1.1968084858        2.0687751470        0.0509835890
 Na        13.4681680534        9.2477207885        2.1081358821
