114   

  C         8.7396251959       15.1360221396       -0.1041449217
  C         9.9694673306       15.8551055801       -0.0997903625
  C        11.1969626375       15.1363384766       -0.0693095622
  C        12.4256512362       15.8573363146       -0.0549679990
  C        13.6536673645       15.1409797924        0.0054249668
  C        14.8828281766       15.8584244745       -0.0046308643
  C        16.1092469524       15.1463840049        0.0223711829
  C        17.3403075963       15.8602459483        0.0056597039
  C        18.5639992467       15.1390953118        0.0132141543
  C        19.7913812642       15.8536126827       -0.0012545096
  C        21.0210089830       15.1335450192       -0.0188821991
  C        22.2473818899       15.8502446574       -0.0288301800
  C        23.4753973778       15.1335809649       -0.0603992801
  C        24.7042910138       15.8534614537       -0.0684419137
  C        25.9311787202       15.1357809885       -0.0931681476
  C        27.1600483013       15.8553633079       -0.0983713112
  C        25.9203077196       13.7095563299       -0.1042067411
  C        23.4649160088       13.7086101468       -0.0811801761
  C        21.0097646740       13.7068609743       -0.0352755268
  C        18.5517109785       13.7061512539        0.0323904645
  C        16.0990482440       13.7219939681        0.0960186562
  C        14.8762969604       13.0346486199        0.1881640234
  C        13.6509265542       13.7173981772        0.1036708960
  C        12.4052266447       12.9854296525        0.0760642455
  C        11.1844335100       13.7105780568       -0.0355832665
  C         9.9546522539       12.9917184218       -0.0747371113
  C         8.7275678197       13.7109110778       -0.1036231460
  C         7.4992837334       12.9912297641       -0.1102564724
  C        24.6923668446       12.9900630422       -0.1004502097
  C        22.2368332624       12.9895124356       -0.0709530217
  C        19.7832068548       12.9878598544       -0.0075289299
  C        17.3325567958       12.9942302396        0.0939299013
  C        24.6830125844       11.5649917229       -0.1069918947
  C        23.4551199357       10.8452061264       -0.1022152363
  C        22.2286224852       11.5634299910       -0.0852721319
  C        21.0016144108       10.8443185836       -0.0659161215
  C        19.7758038216       11.5644004223       -0.0211835134
  C        18.5494331602       10.8440044233        0.0265573855
  C        17.3246422225       11.5629096400        0.1103754842
  C        16.1191200884       10.8365833863        0.2263423407
  C        14.8849727387       11.5876755237        0.4544377323
  C        13.5919340316       10.8363054121        0.4227026010
  C        12.3690299806       11.5782134564        0.1344571720
  C        11.1650423875       10.8493145759        0.0266460691
  C         9.9405981971       11.5671516565       -0.0619050899
  C         8.7144136082       10.8459219568       -0.0905613908
  C         7.4883724533       11.5661696886       -0.1100097691
  C         6.2614718068       10.8467568542       -0.1114705464
  C         6.2521841515        9.4201902478       -0.1079335306
  C         7.4795247073        8.7022570922       -0.0927854682
  C         8.7059549423        9.4218527545       -0.0722869662
  C         9.9369718265        8.7038288136       -0.0175630814
  C        11.1553464282        9.4178903531        0.0466061960
  C        12.3882840392        8.6907415751        0.1009189421
  C        13.6095935159        9.3820400459        0.2142428955
  C        14.8382845382        8.6949076166        0.1892225435
  C        16.0847376425        9.4278434368        0.1810410025
  C        17.3062038255        8.6999669384        0.0762278610
  C        18.5354173709        9.4188368227        0.0196577551
  C        19.7617514755        8.6992504867       -0.0390261205
  C        20.9897653089        9.4188648546       -0.0731892864
  C        22.2165571345        8.7003627624       -0.0961320912
  C        23.4445632498        9.4198345839       -0.1054084930
  C        22.2071987495        7.2744379676       -0.0980606656
  C        20.9785135535        6.5553213448       -0.0858117423
  C        19.7510284663        7.2745586198       -0.0515310252
  C        18.5217826895        6.5557603973       -0.0223609033
  C        17.2947556896        7.2743632836        0.0384236373
  C        16.0664413165        6.5528803178        0.0581385732
  C        14.8378156944        7.2697627050        0.1070073727
  C        13.6080056724        6.5520914424        0.0732381365
  C        12.3809293941        7.2644680996        0.0580728233
  C        11.1503760002        6.5503656213        0.0131985583
  C         9.9262864980        7.2713953704       -0.0176113081
  C         8.6996209103        6.5567257631       -0.0515082789
  C         7.4697432346        7.2761904283       -0.0822322460
  C         6.2436043272        6.5596556767       -0.0935891638
  C         5.0152022859        7.2761828839       -0.1040921666
  C         5.0241499009        8.7010156576       -0.1081588301
  C         3.7863847521        6.5567780693       -0.1038512780
  C         3.7765497523        5.1309208183       -0.1023121853
  C         5.0051408377        4.4128411256       -0.0917636374
  C         6.2337753368        5.1305784878       -0.0837501061
  C         7.4594998583        4.4132797209       -0.0586476813
  C         8.6900301389        5.1309291165       -0.0412986522
  C         9.9149847807        4.4118108689       -0.0124340708
  C        11.1427539590        5.1265738251        0.0060384622
  C        12.3718613815        4.4071523582        0.0172147489
  C        13.5995457547        5.1222205239        0.0372095095
  C        14.8263335476        4.4075363643        0.0175493118
  C        16.0566081100        5.1293487767        0.0151362719
  C        17.2831693633        4.4104614895       -0.0293934893
  C        18.5119737544        5.1301119199       -0.0471983045
  C        19.7397260529        4.4110353006       -0.0829622951
  C        20.9681426934        5.1301332616       -0.0940967988
  C        19.7295838387        2.9850285777       -0.0951615874
  C        18.5013663532        2.2661622078       -0.0866981491
  C        17.2725732127        2.9845330769       -0.0559664025
  C        16.0454307097        2.2648844113       -0.0444824525
  C        14.8171445920        2.9824253143       -0.0108813254
  C        13.5883486962        2.2649005809       -0.0081947153
  C        12.3624377394        2.9817783533        0.0041296064
  C        11.1318998022        2.2647243853        0.0005686351
  C         9.9065299914        2.9836722206       -0.0061652015
  C         8.6790276969        2.2693886174       -0.0134206917
  C         6.2224492227        2.2732359925       -0.0440730752
  C         7.4498992229        2.9882912292       -0.0394699110
  C         4.9960798571        2.9874549240       -0.0763663980
  C         3.7658334649        2.2662665932       -0.0845906599
  C         2.5387828422        2.9851083709       -0.1018779384
  C         2.5491747713        4.4112354843       -0.1032491780
  C         1.3098177114        2.2663312910       -0.1035356287
  O        14.2036231298       11.2501925112        1.7616101754
 Na        14.0566058997       10.2154637309        3.6572400744
