107

C         -0.09421        0.02838       -0.02189
C          4.17268       -7.39098       -0.00064
C          7.02835       -7.39078        0.00092
C         -0.09159       -9.86052        0.00067
C          4.91338        1.22170        0.28592
C          6.28834        1.24360        0.29841
C          7.03329        0.03368        0.08644
C          2.75046       -4.91611        0.00354
C          2.01167      -11.07613        0.00197
C          6.28272      -11.07634        0.00044
C          2.75712       -7.39081       -0.00054
C          6.31557       -8.62848        0.00036
C          4.17970       -4.91651        0.00378
C          2.03928       -3.68238        0.00751
C          6.31089       -6.14951        0.00068
C          0.61847       -3.68215       -0.00065
C          4.91785      -11.07621        0.00053
C          2.03961       -6.14990        0.00036
C          4.89035       -6.15029        0.00015
C          4.88536       -8.62862       -0.00036
C          6.32036       -1.19906        0.06198
C          4.88850       -1.20829        0.07948
C          4.17845        0.01862        0.12857
C          2.74928        0.02590        0.07425
C          2.01248        1.24219        0.04432
C          0.64716        1.24254       -0.00506
C          0.64680      -11.07610        0.00201
C         -0.09234       -4.91598       -0.00276
C          7.02126       -9.86079        0.00071
C          0.61882       -6.14982       -0.00003
C         -0.09874       -7.39077        0.00012
C          7.02939       -2.43974        0.00879
C          0.61408       -8.62845        0.00006
C          2.04431       -8.62837       -0.00040
C          2.75002       -9.86050        0.00017
C          4.17960       -9.86058       -0.00000
C         -0.09991       -2.44221       -0.01132
C          7.02170       -4.91536        0.00060
C          6.31116       -3.68086        0.00580
C          4.89127       -3.68346        0.01244
C          4.17446       -2.44378        0.03541
C          2.75724       -2.44230        0.02640
C          2.04268       -1.20518        0.03339
C          0.61203       -1.20427       -0.00029
C          8.45000        0.02665       -0.11167
C         12.71557       -7.39170        0.00129
C         15.57154       -7.39106        0.00057
C          8.45091       -9.86108        0.00169
C         13.45384        1.23820       -0.18377
C         14.81846        1.24180       -0.11267
C         15.56136        0.02847       -0.07281
C         11.29302       -4.91795       -0.01425
C         10.55432      -11.07697        0.00306
C         14.82636      -11.07636        0.00117
C         11.29981       -7.39187        0.00184
C         14.85879       -8.62879        0.00147
C         12.72201       -4.91772       -0.01815
C         10.58194       -3.68471       -0.03209
C         14.85386       -6.15050       -0.00320
C          9.16190       -3.68387       -0.01360
C         13.46138      -11.07656        0.00155
C         10.58195       -6.15124       -0.00102
C         13.43321       -6.15111       -0.00423
C         13.42847       -8.62917        0.00225
C         14.85673       -1.20528       -0.07690
C         13.42669       -1.20819       -0.12364
C         12.71890        0.02053       -0.20380
C         11.29022        0.01549       -0.26710
C         10.54610        1.21247       -0.46375
C          9.18201        1.21584       -0.39126
C          9.18935      -11.07673        0.00288
C          8.45066       -4.91677       -0.00063
C         15.56471       -9.86075        0.00116
C          9.16134       -6.15088        0.00067
C          8.44383       -7.39144        0.00156
C         15.57019       -2.44252       -0.03593
C          9.15665       -8.62916        0.00184
C         10.58695       -8.62934        0.00243
C         11.29286       -9.86146        0.00235
C         12.72268       -9.86120        0.00219
C          8.44464       -2.44301       -0.01699
C         15.56445       -4.91645       -0.00861
C         14.85312       -3.68330       -0.02816
C         13.43260       -3.68431       -0.04168
C         12.71471       -2.44541       -0.08853
C         11.29875       -2.44582       -0.08656
C         10.58465       -1.21086       -0.15147
C          9.15530       -1.20791       -0.09073
H          0.12998        2.19606       -0.03436
H          2.53162        2.19557        0.04504
H          4.38209        2.14896        0.48313
H         15.34479      -12.02943        0.00108
H          8.66177        2.14715       -0.58470
H         11.05903        2.14158       -0.69192
H         12.92806        2.18789       -0.19789
H         15.33297        2.19678       -0.08418
H          0.12859      -12.02925        0.00455
H          2.52993      -12.02929        0.00433
H          4.39948      -12.02929        0.00113
H          6.80074      -12.02962        0.00071
H          8.67107      -12.02986        0.00475
H         11.07231      -12.03028        0.00427
H         12.94355      -12.02994        0.00157
Cx          6.89911        2.53672        0.75133
H          6.11331        3.32168       -0.82311
O          6.59903        3.63472       -0.03681
O          7.55181        2.67615        1.76268
