114

C          8.62978       14.93745       -0.05049
C          9.85631       15.65659       -0.05094
C         11.08479       14.94007       -0.00184
C         12.31115       15.65775       -0.01279
C         13.53569       14.94103        0.01719
C         14.76707       15.65740       -0.00707
C         15.99067       14.93830        0.00282
C         17.22111       15.65552       -0.01531
C         18.44897       14.93687       -0.03320
C         19.67698       15.65445       -0.04597
C         20.90537       14.93605       -0.07390
C         22.13509       15.65476       -0.08190
C         23.36169       14.93595       -0.09769
C         24.59401       15.65404       -0.09808
C         25.81909       14.93616       -0.09232
C         27.05104       15.65416       -0.08554
C         25.81325       13.50717       -0.08851
C         23.35381       13.51033       -0.10456
C         20.89641       13.51098       -0.09006
C         18.43791       13.50738       -0.04749
C         15.97743       13.50519        0.02519
C         14.75765       12.79297        0.09084
C         13.52169       13.51567        0.10042
C         12.29976       12.81947        0.19169
C         11.08175       13.51539        0.09052
C          9.84306       12.79307        0.07633
C          8.62699       13.50510       -0.01095
C          7.38945       12.78831       -0.05472
C         24.58194       12.79048       -0.10326
C         22.12384       12.79214       -0.10471
C         19.66547       12.79102       -0.08060
C         17.21087       12.78866       -0.02052
C         24.57183       11.36514       -0.10447
C         23.34046       10.64637       -0.11023
C         22.11426       11.36466       -0.10917
C         20.88460       10.64577       -0.10629
C         19.65658       11.36423       -0.09277
C         18.42852       10.64571       -0.08018
C         17.20069       11.36380       -0.04011
C         15.97283       10.64326       -0.00396
C         14.74200       11.35536        0.08782
C         13.53555       10.63350        0.18657
Cx         12.29036       11.36361        0.58321
C         11.03880       10.63236        0.19236
C          9.83883       11.35533        0.08645
C          8.60588       10.64287       -0.01175
C          7.38011       11.36345       -0.05921
C          6.15000       10.64608       -0.09073
C          6.14106        9.21894       -0.09107
C          7.36479        8.50006       -0.06650
C          8.59695        9.21973       -0.02177
C          9.82054        8.50210        0.01547
C         11.04784        9.22545        0.11095
C         12.28016        8.49936        0.11220
C         13.51389        9.22551        0.10311
C         14.73809        8.50169        0.00487
C         15.96565        9.21863       -0.02611
C         17.19295        8.49987       -0.07245
C         18.42097        9.21892       -0.08978
C         19.64726        8.50168       -0.10366
C         20.87659        9.22107       -0.10769
C         22.10374        8.50244       -0.10862
C         23.33223        9.22052       -0.10899
C         22.09432        7.07569       -0.10601
C         20.86433        6.35632       -0.10526
C         19.63798        7.07481       -0.10441
C         18.40977        6.35605       -0.10063
C         17.18260        7.07547       -0.08523
C         15.95359        6.35689       -0.06892
C         14.72720        7.07610       -0.02458
C         13.49828        6.35830        0.00163
C         12.27149        7.08456        0.04698
C         11.03835        6.35786        0.01789
C          9.81305        7.07513       -0.00347
C          8.58405        6.35633       -0.03685
C          7.35669        7.07536       -0.06619
C          6.12799        6.35723       -0.08426
C          4.90183        7.07659       -0.09847
C          4.91114        8.50112       -0.10261
C          3.67142        6.35772       -0.10110
C          3.66314        4.93119       -0.09467
C          4.89006        4.21325       -0.08087
C          6.11998        4.93110       -0.07376
C          7.34509        4.21321       -0.04756
C          8.57615        4.93209       -0.03150
C          9.80230        4.21364       -0.01448
C         11.03164        4.93349       -0.00166
C         12.25917        4.21300       -0.01489
C         13.48836        4.93422       -0.02550
C         14.71475        4.21313       -0.06383
C         15.94481        4.93106       -0.08040
C         17.17088        4.21175       -0.09735
C         18.40085        4.93062       -0.10238
C         19.62709        4.21272       -0.10335
C         20.85560        4.93168       -0.10305
C         19.61843        2.78525       -0.09741
C         18.39008        2.06589       -0.09811
C         17.16197        2.78564       -0.09978
C         15.93356        2.06763       -0.09455
C         14.70603        2.78747       -0.07726
C         13.47604        2.06870       -0.06499
C         12.25085        2.78895       -0.03458
C         11.01819        2.06775       -0.02864
C          9.79354        2.78595       -0.01832
C          8.56304        2.06676       -0.01993
C          6.10831        2.06927       -0.03559
C          7.33656        2.78641       -0.03331
C          4.88107        2.78911       -0.06026
C          3.65199        2.07204       -0.05656
C          2.42680        2.78809       -0.08214
C          2.43531        4.21360       -0.09652
C          1.19645        2.06770       -0.08255
O         12.22601       11.33435        2.08260
H         13.04562       11.75543        2.40265
